CRYSTAL
PRIMVEC
 0.00000000000000 2.81800000000000 2.81800000000000
 2.81800000000000 0.00000000000000 2.81800000000000
 2.81800000000000 2.81800000000000 0.00000000000000
PRIMCOORD
 2 1
 32     0.00000000000000     0.00000000000000     0.00000000000000
 32     1.40900000000000     1.40900000000000     1.40900000000000
